# Alq3 cryst-b optimized by PBE-D3paw600
data_nolabel
_cell_length_a      8.31979829
_cell_length_b     10.20291064
_cell_length_c     13.06957168
_cell_angle_alpha  108.13368985
_cell_angle_beta    96.85212742
_cell_angle_gamma   90.68374560
_cell_formula_units_Z  2
_symmetry_space_group_name_H-M   P-1
loop_
_symmetry_equiv_pos_as_xyz
x,y,z
-x,-y,-z
loop_
_atom_site_type_symbol
_atom_site_fract_x
_atom_site_fract_y
_atom_site_fract_z
  Al    .22383242  -.19331062   .24164082
  O     .07800298  -.30640434   .12395209
  N     .23880042  -.08137264   .13367405
  C     .32297499   .03519644   .14515745
  C     .32504780   .08985461   .05873557
  C     .23985422   .02066258  -.04145860
  C     .14885326  -.10383140  -.05660309
  C     .15169324  -.14974972   .03595280
  C     .06520080  -.27374226   .03310021
  C    -.02255925  -.35075686  -.06606882
  C    -.02529602  -.30482250  -.15763850
  C     .05678818  -.18459439  -.15493696
  H     .39059690   .08599943   .22477941
  H     .39415344   .18680530   .07370788
  H     .24031926   .06063996  -.10972755
  H    -.08234166  -.44998451  -.07447447
  H    -.09517969  -.36770775  -.23340042
  H     .05159751  -.15196171  -.22700545
  O     .21903065  -.31647995   .32236150
  N     .41801953  -.30291105   .18438364
  C     .51691113  -.28894794   .11519599
  C     .64388451  -.37759940   .08697588
  C     .66683565  -.48383066   .13097327
  C     .56300629  -.50269793   .20417931
  C     .43911655  -.40678574   .22898837
  C     .32934560  -.40999122   .30544877
  C     .35006275  -.51155460   .35653577
  C     .47207609  -.60706158   .33115875
  C     .57693852  -.60546672   .25659550
  H     .49526111  -.20436483   .08179707
  H     .72320053  -.36132894   .03102403
  H     .76605802  -.55214965   .11090777
  H     .27144333  -.51676694   .41639234
  H     .48334934  -.68410761   .37333984
  H     .67214912  -.67880762   .23971370
  O     .36336689  -.05505919   .34525511
  N     .04698926  -.07728461   .31284980
  C    -.11343230  -.09987582   .29692629
  C    -.21704650  -.00214090   .35274921
  C    -.15080755   .12127729   .42626827
  C     .01963307   .14804084   .44598399
  C     .11439152   .04242824   .38686252
  C     .28845152   .05137656   .40323745
  C     .36373183   .17065045   .47950037
  C     .26965520   .27736083   .53560704
  C     .10175630   .26850164   .52112598
  H    -.15968263  -.19867690   .23864855
  H    -.34756936  -.02625480   .33958216
  H    -.22716181   .19776606   .47277630
  H     .49535366   .17890871   .49839049
  H     .33257751   .36975878   .59353355
  H     .03184741   .34955831   .56872608
