# anthracene cryst optimized by PBE-D3paw600
data_nolabel
_cell_length_a                   9.2196505
_cell_length_b                   5.98472407
_cell_length_c                   8.37560921
_cell_angle_alpha                90
_cell_angle_beta                102.0660933
_cell_angle_gamma                90
_cell_formula_units_Z            2
_symmetry_space_group_name_H-M   P21/c
loop_
_symmetry_equiv_pos_as_xyz
x,y,z
-x,-y,-z
-x,y+1/2,-z+1/2
x,-y+1/2,z+1/2
loop_
_atom_site_type_symbol
_atom_site_fract_x
_atom_site_fract_y
_atom_site_fract_z
 C    -.36983701   .02647507  -.28335336
 C    -.28333548   .15684992  -.16556353
 C    -.14073738   .08235234  -.08148785
 C    -.04951335   .21243979   .03810735
 C     .08972883   .13549430   .12069557
 C     .18283563   .26541090   .24354811
 C     .31869728   .18657268   .32346270
 H    -.47844944   .08660901  -.34611809
 H    -.32179137   .32048696  -.13486132
 H    -.08810915   .37635837   .06854247
 H     .14384403   .42883573   .27354948
 H     .38769669   .28829333   .41778904
 C     .36983701  -.02647507   .28335336
 C     .28333548  -.15684992   .16556353
 C     .14073738  -.08235234   .08148785
 C     .04951335  -.21243979  -.03810735
 C    -.08972883  -.13549430  -.12069557
 C    -.18283563  -.26541090  -.24354811
 C    -.31869728  -.18657268  -.32346270
 H     .47844944  -.08660901   .34611809
 H     .32179137  -.32048696   .13486132
 H     .08810915  -.37635837  -.06854247
 H    -.14384403  -.42883573  -.27354948
 H    -.38769669  -.28829333  -.41778904
