# anthracenePh2b cryst optimized by PBE-D3paw600
data_nolabel
_cell_length_a     10.58205679
_cell_length_b     13.56998531
_cell_length_c     11.95351444
_cell_angle_alpha  90
_cell_angle_beta   89.85461043
_cell_angle_gamma  90
_cell_formula_units_Z  4
_symmetry_space_group_name_H-M  'C2/c'
loop_
_symmetry_equiv_pos_as_xyz
x,y,z
-x+1/2,-y+1/2,-z
1-x,y,-z+1/2
x+1/2,-y+1/2,z+1/2
x+1/2,y+1/2,z
1-x,1-y,-z
-x+1/2,y+1/2,-z+1/2
x,1-y,z+1/2
loop_
_atom_site_type_symbol
_atom_site_fract_x
_atom_site_fract_y
_atom_site_fract_z
  C    -.08128054   .34479718   .01177178
  C     .03223716   .36955476  -.03655254
  C     .14248684   .31012360  -.02123952
  C     .26106570   .33712657  -.06695720
  C     .36853661   .27772911  -.04693617
  C     .48850449   .30006591  -.09605786
  C     .59177011   .24092215  -.07908348
  C     .58128054   .15520282  -.01177178
  C     .46776284   .13044524   .03655254
  C     .35751316   .18987640   .02123952
  C     .23893430   .16287343   .06695720
  C     .13146339   .22227089   .04693617
  C     .01149551   .19993409   .09605786
  C    -.09177011   .25907785   .07908348
  C     .27366860   .42782675  -.13569189
  C     .21178495   .43610899  -.23901730
  C     .22391218   .52135596  -.30337042
  C     .29908563   .59929119  -.26627958
  C     .36149061   .59187482  -.16383132
  C     .34822314   .50708696  -.09879012
  C     .22633140   .07217325   .13569189
  C     .28821505   .06389101   .23901730
  C     .27608782  -.02135596   .30337042
  C     .20091437  -.09929119   .26627958
  C     .13850939  -.09187482   .16383132
  C     .15177686  -.00708696   .09879012
  H    -.16370040   .39182597   .00066787
  H     .04021461   .43660494  -.08619659
  H     .49680840   .36502177  -.14897042
  H     .68179589   .25889343  -.11847443
  H     .66370040   .10817403  -.00066787
  H     .45978539   .06339506   .08619659
  H     .00319160   .13497823   .14897042
  H    -.18179589   .24110657   .11847443
  H     .15371881   .37512956  -.26890586
  H     .17399714   .52747387  -.38265792
  H     .30814153   .66566193  -.31698106
  H     .41962942   .65246315  -.13330717
  H     .39480034   .50226235  -.01765466
  H     .34628119   .12487044   .26890586
  H     .32600286  -.02747387   .38265792
  H     .19185847  -.16566193   .31698106
  H     .08037058  -.15246315   .13330717
  H     .10519966  -.00226235   .01765466

