# anthraquinone cryst optimized by PBE-D3paw600
data_nolabel
_cell_length_a      7.89706427
_cell_length_b      3.84591649
_cell_length_c     15.73680876
_cell_angle_alpha   90
_cell_angle_beta   102.19494858
_cell_angle_gamma   90
_cell_formula_units_Z  2
_symmetry_space_group_name_H-M   P21/c
loop_
_symmetry_equiv_pos_as_xyz
x,y,z
-x,-y,-z
-x,y+1/2,-z+1/2
x,-y+1/2,z+1/2
loop_
_atom_site_type_symbol
_atom_site_fract_x
_atom_site_fract_y
_atom_site_fract_z
  C    -.40311834   .41443415  -.13082387
  C    -.34288607   .26926524  -.04885190
  C    -.17422956   .13815670  -.02525309
  C    -.11458120  -.01240969   .06287224
  C     .06457932  -.15152672   .08543667
  C     .12629616  -.29695435   .16773468
  C     .29439434  -.42808109   .19043503
  H    -.53444921   .51784207  -.14780209
  H    -.42502195   .25410305  -.00156247
  O    -.21086223  -.02019977   .11568329
  H     .04066544  -.30703192   .21356539
  H     .33895102  -.54082164   .25465407
  C     .40311834  -.41443415   .13082387
  C     .34288607  -.26926524   .04885190
  C     .17422956  -.13815670   .02525309
  C     .11458120   .01240969  -.06287224
  C    -.06457932   .15152672  -.08543667
  C    -.12629616   .29695435  -.16773468
  C    -.29439434   .42808109  -.19043503
  H     .53444921  -.51784207   .14780209
  H     .42502195  -.25410305   .00156247
  O     .21086223   .02019977  -.11568329
  H    -.04066544   .30703192  -.21356539
  H    -.33895102   .54082164  -.25465407
