# benzodithiopheneO2 cryst optimized by PBE-D3paw600
data_nolabel
_cell_length_a      5.50295649
_cell_length_b      5.77373117
_cell_length_c     13.56241639
_cell_angle_alpha   90
_cell_angle_beta    97.39708120
_cell_angle_gamma   90
_cell_formula_units_Z  2
_symmetry_space_group_name_H-M   P21/n
loop_
_symmetry_equiv_pos_as_xyz
x,y,z
-x,-y,-z
-x+1/2,y+1/2,-z+1/2
x+1/2,-y+1/2,z+1/2
loop_
_atom_site_type_symbol
_atom_site_fract_x
_atom_site_fract_y
_atom_site_fract_z
  C    -.12642614  -.19804919  -.04633906
  C    -.21215133  -.10235890   .04399780
  C    -.07287452   .09890836   .08507435
  C     .07287452  -.09890836  -.08507435
  C     .21215133   .10235890  -.04399780
  C     .12642614   .19804919   .04633906
  C    -.22448572  -.39111672  -.10279334
  C    -.09886807  -.43211101  -.18293265
  S     .13612596  -.24093697  -.18959276
  S    -.13612596   .24093697   .18959276
  C     .09886807   .43211101   .18293265
  C     .22448572   .39111672   .10279334
  H    -.13221939  -.56762313  -.23857285
  H    -.37723391  -.49665852  -.08520254
  O    -.38630679  -.18523945   .08235928
  O     .38630679   .18523945  -.08235928
  H     .37723391   .49665852   .08520254
  H     .13221939   .56762313   .23857285
