# bithiophene cryst optimized by PBE-D3paw600
data_nolabel
_cell_length_a                   7.68823956
_cell_length_b                   5.72672915
_cell_length_c                   8.87168294
_cell_angle_alpha                90
_cell_angle_beta                105.7063373
_cell_angle_gamma                90
_cell_formula_units_Z            2
_symmetry_space_group_name_H-M   P21/c
loop_
_symmetry_equiv_pos_as_xyz
x,y,z
-x,-y,-z
-x,y+1/2,-z+1/2
x,-y+1/2,z+1/2
loop_
_atom_site_type_symbol
_atom_site_fract_x
_atom_site_fract_y
_atom_site_fract_z
 S     .25124685  -.17686488   .12413625
 C     .07447768   .02127345   .06818067
 C     .10209465   .20817420   .17133546
 C     .26368758   .18839328   .29444228
 C     .35849267  -.01221505   .28385557
 H     .00885083   .35461644   .15864725
 H     .30810206   .31772540   .38675586
 H     .48594340  -.07293034   .35972932
 S    -.25124685   .17686488  -.12413625
 C    -.07447768  -.02127345  -.06818067
 C    -.10209465  -.20817420  -.17133546
 C    -.26368758  -.18839328  -.29444228
 C    -.35849267   .01221505  -.28385557
 H    -.00885083  -.35461644  -.15864725
 H    -.30810206  -.31772540  -.38675586
 H    -.48594340   .07293034  -.35972932
