# BTBT-iPr1 cryst optimized by PBE-D3paw600
data_nolabel
_cell_length_a      5.92961252
_cell_length_b      9.18346419
_cell_length_c     24.41340852
_cell_angle_alpha   90
_cell_angle_beta    90
_cell_angle_gamma   90
_cell_formula_units_Z  4
_symmetry_space_group_name_H-M  'P212121'
loop_
_symmetry_equiv_pos_as_xyz
x,y,z
x+1/2,-y+3/2,1-z
-x+1/2,1-y,z-1/2
-x,y-1/2,-z+1/2
loop_
_atom_site_type_symbol
_atom_site_fract_x
_atom_site_fract_y
_atom_site_fract_z
  S    -.25655060   .60619533   .49696910
  C    -.08146243   .48106694   .52974143
  C    -.12968101   .40927731   .57893448
  C     .02875578   .31115421   .59927320
  C     .23229269   .28536193   .57127066
  C     .28092993   .35649304   .52242977
  C     .12373500   .45528555   .50054866
  C     .12781031   .54074427   .45143039
  S     .32584307   .56856411   .39992069
  C     .15239539   .69802751   .36844393
  C     .20241637   .77649490   .32089127
  C     .04778653   .87914380   .30128166
  C    -.15436685   .90211934   .33051498
  C    -.20685384   .82431945   .37761235
  C    -.05455890   .71940806   .39723651
  C    -.06358268   .62654795   .44424838
  H    -.28742867   .42992094   .60054709
  H    -.00657052   .25249307   .63713682
  H     .35341443   .20769842   .58771869
  H     .43852918   .33532347   .50096175
  H     .36143477   .75812466   .29957092
  C     .08904134   .96166168   .24842197
  H    -.27257989   .98422370   .31581219
  H    -.36366046   .84544192   .39945445
  H    -.03509262  1.05076582   .24692771
  C     .04597866   .86330174   .19866346
  H    -.12564112   .81832525   .19917352
  H     .16490759   .77139443   .19807689
  H     .06692944   .92525685   .16052806
  C     .32398797  1.03048235   .24471182
  H     .36077958  1.09795552   .28080059
  H     .33404217  1.09980069   .20811267
  H     .45689463   .94735009   .24144876
