# BTBT-C12 cryst optimized by PBE-D3paw600
data_nolabel
_cell_length_a     5.96509287
_cell_length_b     7.33638267
_cell_length_c    37.45922382
_cell_angle_alpha  90
_cell_angle_beta   92.08885360
_cell_angle_gamma  90
_cell_formula_units_Z  2
_symmetry_space_group_name_H-M  'P21/a'
loop_
_symmetry_equiv_pos_as_xyz
x,y,z
1-x,-y,1-z
-x+3/2,y+1/2,1-z
x+1/2,-y+1/2,z
loop_
_atom_site_type_symbol
_atom_site_fract_x
_atom_site_fract_y
_atom_site_fract_z
  S     .78877276   .10266922   .47679861
  C     .60159043   .04602822   .44176402
  C     .63781846   .07296827   .40551913
  C     .47177041   .02116175   .38019505
  C     .27361495  -.06078822   .39197596
  C     .23442660  -.08609157   .42799471
  C     .39748455  -.03082727   .45378796
  C     .40130201  -.03415930   .49202277
  C     .49872281   .06195160   .34108083
  C     .69758333  -.02946148   .32341426
  C     .72272400   .03763308   .28515960
  C     .92186012  -.04289862   .26610450
  C     .94523424   .03436035   .22854051
  C    1.14276971  -.04322712   .20866127
  C    1.16377566   .03668847   .17128687
  C    1.35943276  -.04125067   .15099666
  C    1.37945512   .03973595   .11370493
  C    1.57343431  -.03866117   .09309199
  C    1.59567552   .04636354   .05615983
  C    1.78664457  -.03514582   .03535136
  H     .79250890   .13752631   .39735117
  H     .14549677  -.10407454   .37225033
  H     .07832574  -.14785974   .43611992
  H     .34279557   .02454931   .32618241
  H     .51686060   .21073746   .33780454
  H     .85275395  -.00088881   .33928865
  H     .67648711  -.17864535   .32371958
  H     .56702944   .00781695   .26938572
  H     .73803487   .18756392   .28543869
  H    1.07764717  -.01612009   .28206549
  H     .90525181  -.19249005   .26468442
  H     .78860097   .00859152   .21271387
  H     .96173057   .18399131   .23020028
  H    1.29977150  -.01786039   .22440604
  H    1.12611710  -.19271632   .20673970
  H    1.00602782   .01258974   .15564086
  H    1.18178399   .18611020   .17325204
  H    1.51744695  -.01739933   .16657845
  H    1.34124263  -.19058755   .14890546
  H    1.22082465   .01710355   .09820732
  H    1.39897395   .18896720   .11585718
  H    1.73190472  -.01885680   .10880044
  H    1.55202704  -.18750122   .09034630
  H    1.43604637   .03016073   .04070385
  H    1.62125410   .19447536   .05913441
  H    1.75989425  -.18149144   .03031037
  H    1.80328487   .03236618   .00942198
  H    1.94814596  -.02060493   .05026283
