# BTBT-Br cryst optimized by PBE-D3paw600
data_nolabel
_cell_length_a      7.30924377
_cell_length_b      3.98070564
_cell_length_c     22.08893662
_cell_angle_alpha  90
_cell_angle_beta   98.70616964
_cell_angle_gamma  90
_cell_formula_units_Z  2
_symmetry_space_group_name_H-M  P21/n
loop_
_symmetry_equiv_pos_as_xyz
x,y,z
-x,-y,-z
-x+1/2,y+1/2,-z+1/2
x+1/2,-y+1/2,z+1/2
loop_
_atom_site_type_symbol
_atom_site_fract_x
_atom_site_fract_y
_atom_site_fract_z
  S     .26576098  -.10140009  -.02021505
  C     .26114839  -.24381642   .05443868
  C     .40843240  -.39296460   .09255969
  C     .37890913  -.48989465   .15076600
  C     .20830188  -.44488442   .17149489
  C     .06242125  -.29511386   .13320184
  C     .08632186  -.19117375   .07411135
  C    -.03792579  -.03168946   .02642250
  H     .54177929  -.43146406   .07753947
  Br    .58084216  -.68646667   .20397731
  H     .18984372  -.52617348   .21724469
  H    -.06989326  -.25792133   .14940748
  S    -.26576098   .10140009   .02021505
  C    -.26114839   .24381642  -.05443868
  C    -.40843240   .39296460  -.09255969
  C    -.37890913   .48989465  -.15076600
  C    -.20830188   .44488442  -.17149489
  C    -.06242125   .29511386  -.13320184
  C    -.08632186   .19117375  -.07411135
  C     .03792579   .03168946  -.02642250
  H    -.54177929   .43146406  -.07753947
  Br   -.58084216   .68646667  -.20397731
  H    -.18984372   .52617348  -.21724469
  H     .06989326   .25792133  -.14940748
