# BTBT-C12a cryst optimized by PBE-D3paw600
data_nolabel
_cell_length_a      4.03931535
_cell_length_b      8.93901906
_cell_length_c     44.40468856
_cell_angle_alpha   90
_cell_angle_beta    91.35239284
_cell_angle_gamma   90
_cell_formula_units_Z  2
_symmetry_space_group_name_H-M  P21/n
loop_
_symmetry_equiv_pos_as_xyz
x,y,z
1-x,-y,-z
-x+1/2,y+1/2,-z+1/2
x-1/2,-y+1/2,z+1/2
loop_
_atom_site_type_symbol
_atom_site_fract_x
_atom_site_fract_y
_atom_site_fract_z
  S     .33883395   .09762702   .04005001
  C     .25110506  -.09388723   .04238654
  C     .10314268  -.16470037   .06690756
  C     .05487791  -.31910993   .06454632
  C     .14680993  -.39983691   .03889319
  C     .29168184  -.32869823   .01472930
  C     .34780449  -.17385098   .01628320
  C     .49358689  -.07393202  -.00477912
  C     .00518241  -.07370157   .09386300
  C    -.12886231  -.16158706   .12035086
  C    -.20376520  -.06320042   .14746503
  C    -.32428018  -.15276170   .17435870
  C    -.39650614  -.05775799   .20201028
  C    -.50975639  -.15001308   .22882352
  C    -.58276263  -.05690555   .25672067
  C    -.69228839  -.15063339   .28346963
  C    -.76559184  -.05830167   .31146990
  C    -.87088092  -.15223480   .33833741
  C    -.94295363  -.05956356   .36634367
  C   -1.03990351  -.15404148   .39334984
  H    -.06124015  -.37865450   .08290135
  H     .10216453  -.52011851   .03800835
  H     .36220470  -.39125319  -.00518095
  H    -.17959437   .01011965   .08627608
  H     .22229181  -.00782074   .10165410
  H     .05211313  -.24791756   .12736571
  H    -.35473169  -.22210264   .11313736
  H     .02067367  -.00007493   .15421850
  H    -.39041438   .02167349   .14099833
  H    -.13684499  -.23800707   .18051215
  H    -.54878441  -.21573058   .16762269
  H    -.17287776   .00631498   .20861653
  H    -.58709314   .02626013   .19610074
  H    -.73264238  -.21432215   .22214776
  H    -.31838467  -.23405250   .23462210
  H    -.77579378   .02634850   .25104167
  H    -.36045459   .00809426   .26333554
  H    -.49872312  -.23390567   .28910146
  H    -.91419970  -.21570709   .27682882
  H    -.54428692   .00768818   .31796296
  H    -.96078168   .02413238   .30591610
  H    -.67514152  -.23459730   .34390758
  H   -1.09212545  -.21835167   .33193527
  H    -.72276333   .00781179   .37239884
  H   -1.14082355   .02153254   .36084814
  H   -1.26617635  -.21885928   .38846809
  H   -1.08369006  -.08487506   .41331772
  H    -.84313540  -.23405250   .39953956
