# BTBT-tBu crystal optimized by PBE-D3paw600
data_nolabel
_cell_length_a    13.94661607
_cell_length_b     6.02746206
_cell_length_c     10.52597721
_cell_angle_alpha  90
_cell_angle_beta   90.98617193
_cell_angle_gamma  90
_cell_formula_units_Z  2
_symmetry_space_group_name_H-M  P21/c
loop_
_symmetry_equiv_pos_as_xyz
x,y,z
-x,1-y,-z
-x,y-1/2,-z+1/2
x,-y+1/2,z+1/2
loop_
_atom_site_type_symbol
_atom_site_fract_x
_atom_site_fract_y
_atom_site_fract_z
  S     .09260420   .22541420   .00290076
  C     .13596837   .41154975   .11800724
  C     .21711603   .38101534   .19565593
  C     .24334556   .54304888   .28486419
  C     .18544308   .73468634   .29429546
  C     .10461539   .76711915   .21756504
  C     .07859503   .60654078   .12661762
  C     .00091752   .59655814   .03627752
  H     .25867645   .22918444   .18678157
  C     .33433877   .51627559   .36728602
  H     .20313292   .86148224   .36453176
  H     .06136191   .91621341   .22809273
  C     .35780643   .27049536   .39161128
  H     .37495575   .18161716   .30386173
  H     .29755448   .18534177   .43647819
  H     .42088275   .25671178   .45522311
  C     .41859681   .62310165   .29678429
  H     .42930400   .54337323   .20428239
  H     .48539097   .60690287   .35321103
  H     .40550768   .80040554   .28024567
  C     .32421143   .63146006   .49664512
  H     .38757264   .59574353   .55662270
  H     .26041577   .57459865   .54691443
  H     .31914334   .81242677   .48819547
