# coronene cryst optimized by PBE-D3paw600
data_nolabel
_cell_length_a     10.00000766
_cell_length_b      4.67578023
_cell_length_c     15.48637141
_cell_angle_alpha   90
_cell_angle_beta   106.68930178
_cell_angle_gamma   90
_cell_formula_units_Z  2
_symmetry_space_group_name_H-M  P21/n
loop_
_symmetry_equiv_pos_as_xyz
x,y,z
-x,-y,-z
-x+1/2,y+1/2,-z+1/2
x+1/2,-y+1/2,z+1/2
loop_
_atom_site_type_symbol
_atom_site_fract_x
_atom_site_fract_y
_atom_site_fract_z
  C     .13452893   .08141102  -.00591790
  C     .07999623   .20663291   .06081691
  C    -.05426573   .12461665   .06695300
  C    -.13452893  -.08141102   .00591790
  C    -.07999623  -.20663291  -.06081691
  C     .05426573  -.12461665  -.06695300
  C     .26910404   .16212269  -.01149121
  C     .15940148   .41479923   .12118766
  C    -.10812015   .24835642   .13408421
  C    -.26910404  -.16212269   .01149121
  C    -.15940148  -.41479923  -.12118766
  C     .10812015  -.24835642  -.13408421
  C     .32003567   .03637255  -.07958493
  C     .34717537   .36627471   .05101986
  C     .29395555   .49045078   .11459170
  C     .10238730   .53735848   .18683475
  C    -.02638134   .45560740   .19344380
  C    -.24220189   .16170564   .13876398
  C    -.32003567  -.03637255   .07958493
  C    -.34717537  -.36627471  -.05101986
  C    -.29395555  -.49045078  -.11459170
  C    -.10238730  -.53735848  -.18683475
  C     .02638134  -.45560740  -.19344380
  C     .24220189  -.16170564  -.13876398
  H     .42317743   .09866590  -.08382619
  H     .45118991   .42408111   .04770957
  H     .35449936   .64913876   .16140951
  H     .16307657   .69780229   .23257144
  H    -.06814919   .55274629   .24427150
  H    -.28282151   .25936849   .19015491
  H    -.42317743  -.09866590   .08382619
  H    -.45118991  -.42408111  -.04770957
  H    -.35449936  -.64913876  -.16140951
  H    -.16307657  -.69780229  -.23257144
  H     .06814919  -.55274629  -.24427150
  H     .28282151  -.25936849  -.19015491
