# cubaneF cryst optimized by PBE-D3paw900
data_nolabel
_cell_length_a                   8.52468421
_cell_length_b                   8.52468422
_cell_length_c                   9.01819895
_cell_angle_alpha                90
_cell_angle_beta                 90
_cell_angle_gamma               120
_cell_formula_units_Z            3
_symmetry_space_group_name_H-M   R-3
loop_
_symmetry_equiv_pos_as_xyz
x,y,z
-y,x-y,z
-x+y,-x,z
-x,-y,-z
y,-x+y,-z
x-y,x,-z
x+2/3,y+1/3,z+1/3
-y+2/3,x-y+1/3,z+1/3
-x+y+2/3,-x+1/3,z+1/3
-x+2/3,-y+1/3,-z+1/3
y+2/3,-x+y+1/3,-z+1/3
x-y+2/3,x+1/3,-z+1/3
x+1/3,y+2/3,z+2/3
-y+1/3,x-y+2/3,z+2/3
-x+y+1/3,-x+2/3,z+2/3
-x+1/3,-y+2/3,-z+2/3
y+1/3,-x+y+2/3,-z+2/3
x-y+1/3,x+2/3,-z+2/3
loop_
_atom_site_type_symbol
_atom_site_fract_x
_atom_site_fract_y
_atom_site_fract_z
 C     .14749796   .15513206   .05063642
 C     .00763411  -.14749796   .05063642
 C    -.15513206  -.00763411   .05063642
 C     .00000000   .00000000  -.15206483
 C     .00000000   .00000000   .15206483
 C    -.14749796  -.15513206  -.05063642
 C    -.00763411   .14749796  -.05063642
 C     .15513206   .00763411  -.05063642
 F     .29302662   .30841748   .10092266
 F     .01539086  -.29302662   .10092266
 F    -.30841748  -.01539086   .10092266
 F    -.00000000  -.00000000  -.30149653
 F     .00000000   .00000000   .30149653
 F    -.29302662  -.30841748  -.10092266
 F    -.01539086   .29302662  -.10092266
 F     .30841748   .01539086  -.10092266
