# DNTT-C8 cryst optimized by PBE-D3paw900
data_nolabel
_cell_length_a                   5.98754347
_cell_length_b                   7.45668667
_cell_length_c                  34.09479849
_cell_angle_alpha                90
_cell_angle_beta                101.2085262
_cell_angle_gamma                90
_cell_formula_units_Z            2
_symmetry_space_group_name_H-M   P21/a
loop_
_symmetry_equiv_pos_as_xyz
x,y,z
-x,-y,-z
-x+1/2,y+1/2,-z
x+1/2,-y+1/2,z
loop_
_atom_site_type_symbol
_atom_site_fract_x
_atom_site_fract_y
_atom_site_fract_z
 S    -.26844176   .10400419   .02468771
 C    -.10612414   .03212642  -.00924958
 C    -.14754129   .02403268  -.05204198
 C    -.33489102   .07403914  -.08086573
 C    -.33543899   .04426888  -.12181825
 C    -.52415068   .09174405  -.15220368
 C    -.52261513   .05803170  -.19182630
 C    -.33492432  -.02745578  -.20393787
 C    -.14791245  -.07254116  -.17498361
 C    -.14096140  -.03780455  -.13384637
 C     .05110071  -.08476877  -.10445408
 C     .04756277  -.05401382  -.06468910
 S     .26844176  -.10400419  -.02468771
 C     .10612414  -.03212642   .00924958
 C     .14754129  -.02403268   .05204198
 C     .33489102  -.07403914   .08086573
 C     .33543899  -.04426888   .12181825
 C     .52415068  -.09174405   .15220368
 C     .52261513  -.05803170   .19182630
 C     .33492432   .02745578   .20393787
 C     .14791245   .07254116   .17498361
 C     .14096140   .03780455   .13384637
 C    -.05110071   .08476877   .10445408
 C    -.04756277   .05401382   .06468910
 H    -.48311339   .13557351  -.07214947
 H    -.67157434   .15509927  -.14370067
 H    -.66988604   .09626919  -.21447030
 H    -.00144668  -.13938552  -.18322516
 H     .19832326  -.14609661  -.11348379
 H     .48311339  -.13557351   .07214947
 H     .67157434  -.15509927   .14370067
 H     .66988604  -.09626919   .21447030
 H     .00144668   .13938552   .18322516
 H    -.19832326   .14609661   .11348379
 C    -.34460563  -.07311346  -.24732354
 H    -.31699690  -.21855239  -.24993108
 H    -.51742912  -.04619199  -.26431146
 C    -.17162810   .02487085  -.26740945
 H    -.20191819   .17055553  -.26710955
 H     .00059016   .00323256  -.24964811
 C    -.18157469  -.04012093  -.31016768
 H    -.16232281  -.18732370  -.30989763
 H    -.35269676  -.01312904  -.32804084
 C    -.00284547   .04239673  -.33110744
 H    -.02409539   .18930314  -.33271165
 H     .16831965   .01822648  -.31297110
 C    -.01374202  -.03336122  -.37306796
 H     .00626503  -.18040676  -.37110161
 H    -.18546932  -.00955708  -.39103075
 C     .16330139   .04426586  -.39505806
 H     .14244113   .19109616  -.39747957
 H     .33532279   .02146619  -.37711776
 C     .15031154  -.03568430  -.43670817
 H     .17471827  -.18203114  -.43404292
 H    -.02281304  -.01600934  -.45435276
 C     .32394455   .04420283  -.45911197
 H     .29840894   .18943121  -.46357758
 H     .49877451   .02379732  -.44243909
 H     .31269168  -.01758913  -.48865839
 C     .34460563   .07311346   .24732354
 H     .31699690   .21855239   .24993108
 H     .51742912   .04619199   .26431146
 C     .17162810  -.02487085   .26740945
 H     .20191819  -.17055553   .26710955
 H    -.00059016  -.00323256   .24964811
 C     .18157469   .04012093   .31016768
 H     .16232281   .18732370   .30989763
 H     .35269676   .01312904   .32804084
 C     .00284547  -.04239673   .33110744
 H     .02409539  -.18930314   .33271165
 H    -.16831965  -.01822648   .31297110
 C     .01374202   .03336122   .37306796
 H    -.00626503   .18040676   .37110161
 H     .18546932   .00955708   .39103075
 C    -.16330139  -.04426586   .39505806
 H    -.14244113  -.19109616   .39747957
 H    -.33532279  -.02146619   .37711776
 C    -.15031154   .03568430   .43670817
 H    -.17471827   .18203114   .43404292
 H     .02281304   .01600934   .45435276
 C    -.32394455  -.04420283   .45911197
 H    -.29840894  -.18943121   .46357758
 H    -.49877451  -.02379732   .44243909
 H    -.31269168   .01758913   .48865839
