# ICZbCl2c cryst optimized by PBE-D3paw600
data_nolabel
_cell_length_a     14.80802211
_cell_length_b      5.78759476
_cell_length_c      7.91775913
_cell_angle_alpha   90
_cell_angle_beta   100.82543028
_cell_angle_gamma   90
_cell_formula_units_Z  2
_symmetry_space_group_name_H-M   P21/c
loop_
_symmetry_equiv_pos_as_xyz
x,y,z
-x,-y,-z
-x,y+1/2,-z+1/2
x,-y+1/2,z+1/2
loop_
_atom_site_type_symbol
_atom_site_fract_x
_atom_site_fract_y
_atom_site_fract_z
  C     .34149461  -.14293912   .28562415
  C     .35247193   .06797404   .37553888
  C     .25828983  -.20678429   .18257900
  C     .18424644  -.05252289   .16982805
  C     .27942040   .22197411   .36471409
  C     .19567415   .16124206   .26118774
  C     .09091341  -.05599670   .07406761
  N     .11423966   .28447503   .22315674
  C     .04931060   .15808531   .11163707
  C     .04109191  -.21656729  -.03951451
  C    -.04931060  -.15808531  -.11163707
  C    -.09091341   .05599670  -.07406761
  C    -.04109191   .21656729   .03951451
  N    -.11423966  -.28447503  -.22315674
  C    -.19567415  -.16124206  -.26118774
  C    -.18424644   .05252289  -.16982805
  C    -.27942040  -.22197411  -.36471409
  C    -.35247193  -.06797404  -.37553888
  C    -.34149461   .14293912  -.28562415
  C    -.25828983   .20678429  -.18257900
  H     .28850056   .38531226   .43397199
  H     .41872794   .11100055   .45434924
  Cl    .43500477  -.32874817   .30563545
  H     .25205695  -.37015138   .11296981
  H     .07149962  -.37955339  -.06892543
  H    -.07149962   .37955339   .06892543
  H    -.10129998  -.43523023  -.27999877
  H     .10129998   .43523023   .27999877
  H    -.25205695   .37015138  -.11296981
  Cl   -.43500477   .32874817  -.30563545
  H    -.28850056  -.38531226  -.43397199
  H    -.41872794  -.11100055  -.45434924
