# IF21a cryst optimized by PBE-D3paw600
data_nolabel
_cell_length_a                   8.58802015
_cell_length_b                   5.76953609
_cell_length_c                  26.42624438
_cell_angle_alpha                90
_cell_angle_beta                 91.8315099
_cell_angle_gamma                90
_cell_formula_units_Z            4
_symmetry_space_group_name_H-M   P21/c
loop_
_symmetry_equiv_pos_as_xyz
x,y,z
1-x,y-1/2,-z+1/2
1-x,1-y,1-z
x,-y+1/2,z+1/2
loop_
_atom_site_type_symbol
_atom_site_fract_x
_atom_site_fract_y
_atom_site_fract_z
 C     .35346701   .23184863   .29069807
 C     .26198982   .41171144   .30936975
 C     .19671177   .58400832   .27670324
 C     .10234996   .75229351   .30665673
 C     .12380869   .66520549   .36028065
 C     .06651486   .75407572   .40492823
 C     .10322419   .64022514   .45055913
 C     .19592115   .44007811   .45150089
 C     .25396050   .34952187   .40683267
 C     .21749053   .46317832   .36116400
 C     .38139388   .22164893   .23896677
 C     .31807983   .39231257   .20671955
 C     .22607123   .57580359   .22546365
 C     .17626058   .73531771   .18272965
 C     .25132371   .62811758   .13741125
 C     .24887958   .70072394   .08716286
 C     .32705072   .56747449   .05157015
 C     .40678436   .36501748   .06620037
 C     .41034312   .29151937   .11659074
 C     .33232291   .42399752   .15215827
 H     .40406621   .10229922   .31630661
 H    -.00605630   .90911245   .40471235
 H     .05859084   .70794203   .48576516
 H     .22268403   .35400576   .48749057
 H     .32644354   .19407609   .40772401
 H     .45379681   .08371713   .22423828
 H     .18662455   .85802905   .07565260
 H     .32487189   .62152910   .01202559
 H     .46701405   .26324023   .03806933
 H     .47320683   .13438845   .12767193
 H    -.02116340   .75192087   .29394227
 H     .14264371   .93218969   .30227090
 H     .04845981   .74451602   .17762307
 H     .21517020   .91484168   .18955613
