# NDI-Cl2CF4 cryst optimized by PBE-D3paw600
data_nolabel
_cell_length_a     11.93432805
_cell_length_b     17.06037190
_cell_length_c      6.70532564
_cell_angle_alpha   90
_cell_angle_beta   100.90816856
_cell_angle_gamma   90
_cell_formula_units_Z  2
_symmetry_space_group_name_H-M  'P21/c'
loop_
_symmetry_equiv_pos_as_xyz
x,y,z
-x,-y,1-z
-x,y+1/2,-z+1/2
x,-y+1/2,z-1/2
loop_
_atom_site_type_symbol
_atom_site_fract_x
_atom_site_fract_y
_atom_site_fract_z
  Cl   -.07119696   .16685483   .02348470
  H     .07485833   .19634408   .38611152
  O     .19094401   .19900536   .73201607
  O     .16285064  -.01824523  1.11545960
  N     .19076443   .08475214   .91259067
  C     .14440939   .01029362   .94438728
  C     .07241431  -.02791399   .76659250
  C     .03787059   .01609171   .58517993
  C     .07777042   .09365757   .56972233
  C     .15729794   .13099688   .73920011
  C     .04259288   .13693506   .39468498
  C    -.03264959   .10505797   .22737907
  C     .26451181   .12086507  1.08708452
  H     .23860971   .09954109  1.22539498
  H     .25528302   .18468563  1.07542500
  C     .67486833   .15268559  1.50839195
  C     .59633160   .10971833  1.32732240
  C     .46880283   .13746171  1.28176992
  C     .38949883   .09841450  1.09567872
  F     .78270548   .12470657  1.52287406
  F     .63994870   .13912024  1.68456324
  F     .67765455   .23081167  1.47657338
  F     .60123114   .03173571  1.37396446
  F     .64303695   .12106421  1.15870597
  F     .42336585   .12273665  1.45137163
  F     .46630369   .21666529  1.24902235
  F     .40276300   .01846475  1.11035987
  F     .42510319   .12145210   .92149506
