# NDT cryst optimized by PBE-D3paw600, orbs=[[1,3],[2,4]]
data_nolabel
_cell_length_a                  17.08752732
_cell_length_b                   7.53899593
_cell_length_c                   8.19048691
_cell_angle_alpha                90
_cell_angle_beta                 93.9000931
_cell_angle_gamma                90
_cell_formula_units_Z            4
_symmetry_space_group_name_H-M   P21/c
loop_
_atom_site_type_symbol
_atom_site_fract_x
_atom_site_fract_y
_atom_site_fract_z
 S     .15488872   .23172071  -.14145592
 S    -.15488872  -.23172071   .14145592
 C     .02280908   .07885751  -.00855040
 C    -.02280908  -.07885751   .00855040
 C     .09078360   .06265111  -.09826811
 C    -.09078360  -.06265111   .09826811
 C     .11278842  -.09892683  -.17001487
 C    -.11278842   .09892683   .17001487
 C     .00112336  -.24212262  -.06021216
 C    -.00112336   .24212262   .06021216
 C     .06700813  -.25310718  -.14707789
 C    -.06700813   .25310718   .14707789
 C     .18084794  -.07822480  -.26128554
 C    -.18084794   .07822480   .26128554
 C     .20936528   .09132038  -.25570151
 C    -.20936528  -.09132038   .25570151
 H    -.03444579  -.36026601  -.04418515
 H     .03444579   .36026601   .04418515
 H     .08381692  -.37890311  -.20028587
 H    -.08381692   .37890311   .20028587
 H     .20655182  -.18414342  -.33006100
 H    -.20655182   .18414342   .33006100
 H     .25935132   .14476583  -.31442988
 H    -.25935132  -.14476583   .31442988
 S     .30673053  -.05797542   .36575326
 S     .69326947   .05797542   .63424674
 C     .45993791  -.02175508   .51209564
 C     .54006209   .02175508   .48790436
 C     .40549034  -.00447128   .37387293
 C     .59450966   .00447128   .62612707
 C     .42752523   .05492893   .21995173
 C     .57247477  -.05492893   .78004827
 C     .56168761   .08092443   .33202636
 C     .43831239  -.08092443   .66797364
 C     .50727305   .09784181   .20147292
 C     .49272695  -.09784181   .79852708
 C     .36250174   .05753007   .09982229
 C     .63749826  -.05753007   .90017771
 C     .29452541  -.00060870   .16107345
 C     .70547459   .00060870   .83892655
 H     .62286293   .11495184   .31676849
 H     .37713707  -.11495184   .68323151
 H     .52484790   .14372590   .08340552
 H     .47515210  -.14372590   .91659448
 H     .36652249   .10012891  -.02629007
 H     .63347751  -.10012891  1.02629007
 H     .23692172  -.01140457   .09689261
 H     .76307828   .01140457   .90310739
