# OPD2Ni cryst optimized by PBE-D3paw600
data_nolabel
_cell_length_a      5.78500470
_cell_length_b      7.36343502
_cell_length_c     25.12249891
_cell_angle_alpha  90
_cell_angle_beta   90.41263241
_cell_angle_gamma  90
_cell_formula_units_Z  4
_symmetry_space_group_name_H-M  P21/c
loop_
_symmetry_equiv_pos_as_xyz
'x,y,z'
'-x,y+1/2,-z+1/2'
'-x,-y,-z'
'x,-y+1/2,z+1/2'
loop_
_atom_site_type_symbol
_atom_site_fract_x
_atom_site_fract_y
_atom_site_fract_z
  C    -.15079767   .26768740   .40255391
  C     .04621279   .17337849   .42175748
  C    -.17021412   .31651074   .34948182
  C     .22455346   .12442036   .38807969
  C     .01185698   .27349786   .31443791
  C     .21024588   .17386400   .33369132
  N     .03007760   .31706313   .26243219
  N     .36456359   .14231079   .29468103
  H    -.28866589   .30455436   .42981501
  H     .05770644   .13870378   .46389870
  H    -.32021477   .38994963   .33448784
  H     .37522208   .05090644   .40295705
  H    -.10403513   .38867475   .24587939
  H     .51044794   .07079356   .30442721
  C     .69290238   .15342177   .05272596
  C     .49005191   .24075126   .03361099
  C     .72751060   .12262806   .10652244
  C     .32094362   .29952919   .06826461
  C     .55630820   .17908337   .14291395
  C     .35168315   .27056207   .12354169
  N     .55257180   .15616845   .19618560
  N     .20740776   .31583341   .16327874
  H     .82267306   .10723103   .02448936
  H     .46550932   .26047201  -.00906475
  H     .88244444   .05394884   .12092053
  H     .16401120   .36578597   .05408014
  H     .68695690   .08644081   .21327206
  H     .05742699   .38030298   .15273387
  Ni    .29095064   .23590671   .22942681
