# pentaceneCl2 cryst optimized by PBE-D3paw600
data_nolabel
_cell_length_a      3.83724222
_cell_length_b     18.60641720
_cell_length_c     10.33669209
_cell_angle_alpha   90
_cell_angle_beta    93.10874015
_cell_angle_gamma   90
_cell_formula_units_Z  2
_symmetry_space_group_name_H-M   P21/c
loop_
_symmetry_equiv_pos_as_xyz
x,y,z
-x,-y,-z
-x,y+1/2,-z+1/2
x,-y+1/2,z+1/2
loop_
_atom_site_type_symbol
_atom_site_fract_x
_atom_site_fract_y
_atom_site_fract_z
  C    -.08332559   .05424415   .08771217
  C    -.16874305   .06495820  -.04524908
  C    -.33864270   .12738397  -.09394132
  C    -.42280730   .13699625  -.22543490
  C    -.60272643   .19941127  -.27443425
  C    -.68404529   .20728597  -.40429604
  C    -.58704425   .15335633  -.49366066
  C    -.41323851   .09279913  -.45110683
  C    -.32898010   .08177551  -.31619756
  C    -.16285619   .01977002  -.26963848
  C    -.08076364   .00866377  -.13647000
  C     .08332559  -.05424415  -.08771217
  C     .16874305  -.06495820   .04524908
  C     .33864270  -.12738397   .09394132
  C     .42280730  -.13699625   .22543490
  C     .60272643  -.19941127   .27443425
  C     .68404529  -.20728597   .40429604
  C     .58704425  -.15335633   .49366066
  C     .41323851  -.09279913   .45110683
  C     .32898010  -.08177551   .31619756
  C     .16285619  -.01977002   .26963848
  C     .08076364  -.00866377   .13647000
  Cl   -.18486664   .12147311   .19550924
  H    -.40867521   .16898131  -.02589663
  H    -.67884131   .24026814  -.20588477
  H    -.82864343   .25450624  -.43930643
  H    -.65482649   .15994478  -.59671731
  H    -.33781127   .05190396  -.51972133
  H    -.09573821  -.02191767  -.33789946
  Cl    .18486664  -.12147311  -.19550924
  H     .40867521  -.16898131   .02589663
  H     .67884131  -.24026814   .20588477
  H     .82864343  -.25450624   .43930643
  H     .65482649  -.15994478   .59671731
  H     .33781127  -.05190396   .51972133
  H     .09573821   .02191767   .33789946
