# pentaceneN2Cl4 cryst optimized by PBE-D3paw600
data_nolabel
_cell_length_a      3.92621266
_cell_length_b     12.20865758
_cell_length_c     17.01232786
_cell_angle_alpha   90
_cell_angle_beta    94.65427107
_cell_angle_gamma   90
_cell_formula_units_Z  2
_symmetry_space_group_name_H-M  P21/n
loop_
_symmetry_equiv_pos_as_xyz
x,y,z
-x,-y,-z
-x+1/2,y+1/2,-z+1/2
x+1/2,-y+1/2,z+1/2
loop_
_atom_site_type_symbol
_atom_site_fract_x
_atom_site_fract_y
_atom_site_fract_z
  N    -.06133260   .03297716   .07726088
  C    -.17305782   .09380367   .01486308
  C    -.35288491   .19300233   .02558880
  C    -.47035001   .25830927  -.03888063
  C    -.64747308   .35909512  -.02953603
  C    -.76250596   .42100877  -.09346304
  C    -.70831742   .38610464  -.17124436
  C    -.53428612   .29112430  -.18306758
  C    -.41017602   .22350528  -.11853932
  C    -.23423699   .12560774  -.12970704
  C    -.11046732   .05945755  -.06499791
  N     .06133260  -.03297716  -.07726088
  C     .17305782  -.09380367  -.01486308
  C     .35288491  -.19300233  -.02558880
  C     .47035001  -.25830927   .03888063
  C     .64747308  -.35909512   .02953603
  C     .76250596  -.42100877   .09346304
  C     .70831742  -.38610464   .17124436
  C     .53428612  -.29112430   .18306758
  C     .41017602  -.22350528   .11853932
  C     .23423699  -.12560774   .12970704
  C     .11046732  -.05945755   .06499791
  Cl   -.42190301   .23220484   .12010509
  H    -.68927121   .38554521   .02999526
  H    -.89787692   .49748769  -.08491407
  H    -.80528784   .43499946  -.22171076
  H    -.48843351   .26552546  -.24252320
  Cl   -.16199546   .08234316  -.22301331
  Cl    .42190301  -.23220484  -.12010509
  H     .68927121  -.38554521  -.02999526
  H     .89787692  -.49748769   .08491407
  H     .80528784  -.43499946   .22171076
  H     .48843351  -.26552546   .24252320
  Cl    .16199546  -.08234316   .22301331
