# perylene cryst-b optimized by PBE-D3paw600
data_nolabel
_cell_length_a      9.73099144
_cell_length_b      5.81426990
_cell_length_c     10.48639182
_cell_angle_alpha   90
_cell_angle_beta    97.11026700
_cell_angle_gamma   90
_cell_formula_units_Z  2
_symmetry_space_group_name_H-M   P21/c
loop_
_symmetry_equiv_pos_as_xyz
x,y,z
-x,-y,-z
-x,y+1/2,-z+1/2
x,-y+1/2,z+1/2
loop_
_atom_site_type_symbol
_atom_site_fract_x
_atom_site_fract_y
_atom_site_fract_z
  C    -.34698290  -.17178812  -.17658185
  C    -.37699550   .17252338  -.04520786
  C    -.26198607  -.33743445  -.21918363
  C    -.29116850   .00069441  -.08958255
  C    -.32168274   .33691375   .04107281
  C    -.11947755  -.33799815  -.17596170
  C    -.14545823   .00071763  -.04489328
  C    -.17951906   .33745896   .08537618
  C    -.05911748  -.17357596  -.08958731
  C    -.08988875   .17409107   .04385883
  C     .34698290   .17178812   .17658185
  C     .37699550  -.17252338   .04520786
  C     .26198607   .33743445   .21918363
  C     .29116850  -.00069441   .08958255
  C     .32168274  -.33691375  -.04107281
  C     .11947755   .33799815   .17596170
  C     .14545823  -.00071763   .04489328
  C     .17951906  -.33745896  -.08537618
  C     .05911748   .17357596   .08958731
  C     .08988875  -.17409107  -.04385883
  H    -.45810981  -.17121281  -.20816992
  H    -.48744095   .17024880  -.07918679
  H    -.30384477  -.47106817  -.28591220
  H    -.38759811   .46830428   .07583183
  H    -.05627887  -.47279238  -.21097467
  H    -.14049571   .47050490   .15336764
  H     .45810981   .17121281   .20816992
  H     .48744095  -.17024880   .07918679
  H     .30384477   .47106817   .28591220
  H     .38759811  -.46830428  -.07583183
  H     .05627887   .47279238   .21097467
  H     .14049571  -.47050490  -.15336764
