# spirobifluorene cryst optimized by PBE-D3paw600
data_nolabel
_cell_length_a     10.09662396
_cell_length_b     10.10196805
_cell_length_c     16.44532184
_cell_angle_alpha   90
_cell_angle_beta    96.74625168
_cell_angle_gamma   90
_cell_formula_units_Z            4
_symmetry_space_group_name_H-M   P21/c
loop_
_symmetry_equiv_pos_as_xyz
x,y,z
1-x,y+1/2,-z+1/2
1-x,1-y,1-z
x,-y+1/2,z+1/2
loop_
_atom_site_type_symbol
_atom_site_fract_x
_atom_site_fract_y
_atom_site_fract_z
  C     .32831046   .28581084   .14368921
  C     .55090814   .38407833   .21803376
  C     .68675058   .36107786   .24207685
  C     .74671981   .24255021   .22168258
  C     .67234333   .14402362   .17753867
  C     .53647574   .16599706   .15447055
  C     .47669015   .28612217   .17447875
  H     .50413596   .47641529   .23377378
  H     .74596555   .43603330   .27749637
  H     .85258886   .22697726   .24083810
  H     .71938843   .05168270   .16210956
  C     .19570118   .09048702   .06555905
  C     .20426533  -.03726546   .03340970
  C     .32591220  -.10533363   .04087377
  C     .44162837  -.04680618   .07967403
  C     .43388285   .08098615   .11123479
  C     .31082503   .14845741   .10469425
  H     .10090051   .14365389   .06014784
  H     .11534346  -.08450477   .00213656
  H     .32992860  -.20496175   .01607865
  H     .53637165  -.09977828   .08526021
  C     .33391518   .42435563   .00916774
  C     .27496796   .52754112  -.03917234
  C     .16824445   .59926279  -.01410810
  C     .11927759   .57100122   .05996225
  C     .17721640   .46761428   .10816295
  C     .28412943   .39494057   .08232674
  H     .41755052   .36883996  -.01015375
  H     .31238290   .55291365  -.09666107
  H     .12294159   .67774725  -.05360493
  H     .03639164   .62725907   .07930631
  C     .23866002   .24785438   .28553973
  C     .14711929   .28895429   .33816148
  C     .05507607   .38968813   .31460200
  C     .05429216   .45315596   .23895577
  C     .14801168   .41491687   .18723380
  C     .23801729   .31076786   .21028706
  H     .30989063   .16904993   .30390133
  H     .14908947   .24268286   .39820943
  H    -.01651770   .41937863   .35590666
  H    -.01698988   .53224515   .22135490
