# TPP cryst optimized by PBE-D3paw600
data_nolabel
_cell_length_a                   8.3518862
_cell_length_b                  14.79313273
_cell_length_c                  11.12427223
_cell_angle_alpha                90
_cell_angle_beta                 90.8227946
_cell_angle_gamma                90
_cell_formula_units_Z            4
_symmetry_space_group_name_H-M   P21/c
loop_
_symmetry_equiv_pos_as_xyz
x,y,z
1-x,y+1/2,-z+1/2
1-x,-y,1-z
x,-y+1/2,z+1/2
loop_
_atom_site_type_symbol
_atom_site_fract_x
_atom_site_fract_y
_atom_site_fract_z
 P     .35042271   .03669309   .29216652
 C     .56757244   .01927892   .29742655
 C     .65093382   .05413395   .39760387
 C     .81681512   .04467449   .40776086
 C     .90103691   .00018662   .31795248
 C     .81875692  -.03627651   .21891311
 C     .65305043  -.02711753   .20875568
 H     .58436970   .08794525   .46832442
 H     .88018538   .07076683   .48680912
 H    1.03063348  -.00709574   .32576327
 H     .88455899  -.07276421   .15027786
 H     .58953177  -.05675898   .13204421
 C     .32538744   .13306348   .18989433
 C     .19011951   .18779495   .20733789
 C     .16194087   .26311014   .13454637
 C     .26880150   .28513607   .04370154
 C     .40340066   .23093152   .02534636
 C     .43208945   .15553455   .09820575
 H     .10717028   .17176370   .27923854
 H     .05745755   .30531671   .15067190
 H     .24918830   .34512454  -.01178640
 H     .48683505   .24707753  -.04611742
 H     .53850487   .11442493   .08379716
 C     .28428660  -.05965154   .20043498
 C     .29776630  -.14631135   .25212713
 C     .23782849  -.22204632   .19213424
 C     .16219285  -.21241178   .07975625
 C     .14853790  -.12696098   .02750850
 C     .20919412  -.05097387   .08750253
 H     .35724454  -.15480634   .33946980
 H     .25055449  -.28881835   .23272631
 H     .11402103  -.27140132   .03318635
 H     .09044479  -.11909804  -.06032734
 H     .19783431   .01560560   .04634834
