# TTAb cryst optimized by PBE-D3paw600
data_nolabel
_cell_length_a     12.35193126
_cell_length_b      5.25534570
_cell_length_c     12.64235229
_cell_angle_alpha   90
_cell_angle_beta    97.57444647
_cell_angle_gamma   90
_cell_formula_units_Z  2
_symmetry_space_group_name_H-M   P21/n
loop_
_symmetry_equiv_pos_as_xyz
x,y,z
-x,-y,-z
-x+1/2,y+1/2,-z+1/2
x+1/2,-y+1/2,z+1/2
loop_
_atom_site_type_symbol
_atom_site_fract_x
_atom_site_fract_y
_atom_site_fract_z
  C    -.02828414   .19328061  -.07430069
  C     .02828414  -.19328061   .07430069
  C     .08180317   .16082842  -.03320457
  C     .11089006  -.03843590   .04340454
  C    -.11089006   .03843590  -.04340454
  C    -.08180317  -.16082842   .03320457
  C     .16684331   .31910915  -.06616663
  C     .22412976  -.07319860   .08614560
  C    -.22412976   .07319860  -.08614560
  C    -.16684331  -.31910915   .06616663
  C     .27694696   .27726129  -.02454389
  C     .30518205   .08549084   .05305448
  C    -.30518205  -.08549084  -.05305448
  C    -.27694696  -.27726129   .02454389
  C     .15631787   .52736241  -.13962873
  C     .26995176  -.25651004   .16278709
  C    -.26995176   .25651004  -.16278709
  C    -.15631787  -.52736241   .13962873
  C     .25457723   .63411942  -.15360268
  C     .38082266  -.23298447   .18753388
  C    -.38082266   .23298447  -.18753388
  C    -.25457723  -.63411942   .15360268
  S     .36299089   .48590694  -.07839821
  S     .43327558   .01048150   .11786835
  S    -.43327558  -.01048150  -.11786835
  S    -.36299089  -.48590694   .07839821
  H    -.05060971   .34453850  -.13200157
  H     .05060971  -.34453850   .13200157
  H     .07890945   .59819029  -.17954768
  H     .22342656  -.40182446   .19823572
  H    -.22342656   .40182446  -.19823572
  H    -.07890945  -.59819029   .17954768
  H     .26992413   .79366031  -.20420002
  H     .43506007  -.34987021   .24209056
  H    -.43506007   .34987021  -.24209056
  H    -.26992413  -.79366031   .20420002
