# TTF cryst optimized by PBE-D3paw600
data_nolabel
_cell_length_a                   7.25548275
_cell_length_b                   3.88646968
_cell_length_c                  13.64716458
_cell_angle_alpha                90
_cell_angle_beta                100.0516945
_cell_angle_gamma                90
_cell_formula_units_Z            2
_symmetry_space_group_name_H-M   P21/c
loop_
_symmetry_equiv_pos_as_xyz
x,y,z
-x,-y,-z
-x,y+1/2,-z+1/2
x,-y+1/2,z+1/2
loop_
_atom_site_type_symbol
_atom_site_fract_x
_atom_site_fract_y
_atom_site_fract_z
 S     .29363772  -.15206150   .00612355
 S     .03799248  -.20593816   .15245009
 C     .06927847  -.07447567   .03318756
 C     .38282040  -.32507778   .12215593
 C     .26673696  -.34798353   .18867384
 H     .52726989  -.41346712   .13439159
 H     .30499597  -.45444261   .26306648
 S    -.29363772   .15206150  -.00612355
 S    -.03799248   .20593816  -.15245009
 C    -.06927847   .07447567  -.03318756
 C    -.38282040   .32507778  -.12215593
 C    -.26673696   .34798353  -.18867384
 H    -.52726989   .41346712  -.13439159
 H    -.30499597   .45444261  -.26306648
