# TTTT cryst optimized by PBE-D3paw600
data_nolabel
_cell_length_a                  11.46819028
_cell_length_b                   3.98380642
_cell_length_c                  10.34680865
_cell_angle_alpha                90
_cell_angle_beta                103.9063387
_cell_angle_gamma                90
_cell_formula_units_Z            2
_symmetry_space_group_name_H-M   P21/n
loop_
_symmetry_equiv_pos_as_xyz
x,y,z
-x,-y,-z
-x+1/2,y+1/2,-z+1/2
x+1/2,-y+1/2,z+1/2
loop_
_atom_site_type_symbol
_atom_site_fract_x
_atom_site_fract_y
_atom_site_fract_z
 C     .15643450   .11780796   .03906120
 S     .29027820   .28070242   .12975706
 C     .16951704  -.01143482  -.08333674
 C     .28766205   .02416197  -.10199290
 C     .03786042   .07879879   .05537854
 C    -.03786042  -.07879879  -.05537854
 S     .03615886  -.17954916  -.17840380
 C    -.15643450  -.11780796  -.03906120
 C    -.16951704   .01143482   .08333674
 S    -.03615886   .17954916   .17840380
 S    -.29027820  -.28070242  -.12975706
 C     .36154832   .18083311   .00568813
 C    -.36154832  -.18083311  -.00568813
 C    -.28766205  -.02416197   .10199290
 H    -.31697398   .06312784   .18868538
 H    -.45585897  -.24386391  -.02010637
 H     .31697398  -.06312784  -.18868538
 H     .45585897   .24386391   .02010637
